IJAU11/trf167839-mult1.5-pv.dss
New "PVsystem.GD.BT_3998960_M1" phases=3 bus1=1003998960.1.2.3.4 conn=Delta kv=0.22 pf=0.92 pmpp=2.084636287031761 kva=3 irradiance=0.98
~ temperature=25 %cutin=0.1 %cutout=0.1 effcurve=Myeff P-TCurve=MyPvsT Daily=PVIrrad_diaria TDaily=MyTemp

New "PVsystem.GD.BT_3998960_M2" phases=3 bus1=1003998960.1.2.3.4 conn=Delta kv=0.22 pf=0.92 pmpp=2.084636287031761 kva=3 irradiance=0.98
~ temperature=25 %cutin=0.1 %cutout=0.1 effcurve=Myeff P-TCurve=MyPvsT Daily=PVIrrad_diaria TDaily=MyTemp

New "PVsystem.GD.BT_1049937_M1" phases=3 bus1=1001049937.1.2.3.4 conn=Delta kv=0.22 pf=0.92 pmpp=1.1726419854625736 kva=2 irradiance=0.98
~ temperature=25 %cutin=0.1 %cutout=0.1 effcurve=Myeff P-TCurve=MyPvsT Daily=PVIrrad_diaria TDaily=MyTemp

New "PVsystem.GD.BT_1049937_M2" phases=3 bus1=1001049937.1.2.3.4 conn=Delta kv=0.22 pf=0.92 pmpp=1.1726419854625736 kva=2 irradiance=0.98
~ temperature=25 %cutin=0.1 %cutout=0.1 effcurve=Myeff P-TCurve=MyPvsT Daily=PVIrrad_diaria TDaily=MyTemp

New "PVsystem.GD.BT_3885504_M1" phases=3 bus1=1003885504.1.2.3.4 conn=Delta kv=0.22 pf=0.92 pmpp=0.5102099895102409 kva=1 irradiance=0.98
~ temperature=25 %cutin=0.1 %cutout=0.1 effcurve=Myeff P-TCurve=MyPvsT Daily=PVIrrad_diaria TDaily=MyTemp

New "PVsystem.GD.BT_3885504_M2" phases=3 bus1=1003885504.1.2.3.4 conn=Delta kv=0.22 pf=0.92 pmpp=0.5102099895102409 kva=1 irradiance=0.98
~ temperature=25 %cutin=0.1 %cutout=0.1 effcurve=Myeff P-TCurve=MyPvsT Daily=PVIrrad_diaria TDaily=MyTemp

New "PVsystem.GD.BT_1050000_M1" phases=3 bus1=1001050000.1.2.3.4 conn=Delta kv=0.22 pf=0.92 pmpp=1.6297039547124748 kva=2 irradiance=0.98
~ temperature=25 %cutin=0.1 %cutout=0.1 effcurve=Myeff P-TCurve=MyPvsT Daily=PVIrrad_diaria TDaily=MyTemp

New "PVsystem.GD.BT_1050000_M2" phases=3 bus1=1001050000.1.2.3.4 conn=Delta kv=0.22 pf=0.92 pmpp=1.6297039547124748 kva=2 irradiance=0.98
~ temperature=25 %cutin=0.1 %cutout=0.1 effcurve=Myeff P-TCurve=MyPvsT Daily=PVIrrad_diaria TDaily=MyTemp

New "PVsystem.GD.BT_1050014_M1" phases=3 bus1=1001050014.1.2.3.4 conn=Delta kv=0.22 pf=0.92 pmpp=0.7479006174415007 kva=1 irradiance=0.98
~ temperature=25 %cutin=0.1 %cutout=0.1 effcurve=Myeff P-TCurve=MyPvsT Daily=PVIrrad_diaria TDaily=MyTemp

New "PVsystem.GD.BT_1050014_M2" phases=3 bus1=1001050014.1.2.3.4 conn=Delta kv=0.22 pf=0.92 pmpp=0.7479006174415007 kva=1 irradiance=0.98
~ temperature=25 %cutin=0.1 %cutout=0.1 effcurve=Myeff P-TCurve=MyPvsT Daily=PVIrrad_diaria TDaily=MyTemp

New "PVsystem.GD.BT_4892503_M1" phases=1 bus1=1004892503.1.4 conn=Delta kv=0.22 pf=0.92 pmpp=1.9965072040953709 kva=2 irradiance=0.98
~ temperature=25 %cutin=0.1 %cutout=0.1 effcurve=Myeff P-TCurve=MyPvsT Daily=PVIrrad_diaria TDaily=MyTemp

New "PVsystem.GD.BT_4892503_M2" phases=1 bus1=1004892503.1.4 conn=Delta kv=0.22 pf=0.92 pmpp=1.9965072040953709 kva=2 irradiance=0.98
~ temperature=25 %cutin=0.1 %cutout=0.1 effcurve=Myeff P-TCurve=MyPvsT Daily=PVIrrad_diaria TDaily=MyTemp

New "PVsystem.GD.BT_11382069_M1" phases=1 bus1=1011382069.1.2.4 conn=Delta kv=0.22 pf=0.92 pmpp=0.13201144833672848 kva=1 irradiance=0.98
~ temperature=25 %cutin=0.1 %cutout=0.1 effcurve=Myeff P-TCurve=MyPvsT Daily=PVIrrad_diaria TDaily=MyTemp

New "PVsystem.GD.BT_11382069_M2" phases=1 bus1=1011382069.1.2.4 conn=Delta kv=0.22 pf=0.92 pmpp=0.13201144833672848 kva=1 irradiance=0.98
~ temperature=25 %cutin=0.1 %cutout=0.1 effcurve=Myeff P-TCurve=MyPvsT Daily=PVIrrad_diaria TDaily=MyTemp

New "PVsystem.GD.BT_1050056_M1" phases=3 bus1=1001050056.1.2.3.4 conn=Delta kv=0.22 pf=0.92 pmpp=1.6670403881035423 kva=2 irradiance=0.98
~ temperature=25 %cutin=0.1 %cutout=0.1 effcurve=Myeff P-TCurve=MyPvsT Daily=PVIrrad_diaria TDaily=MyTemp

New "PVsystem.GD.BT_1050056_M2" phases=3 bus1=1001050056.1.2.3.4 conn=Delta kv=0.22 pf=0.92 pmpp=1.6670403881035423 kva=2 irradiance=0.98
~ temperature=25 %cutin=0.1 %cutout=0.1 effcurve=Myeff P-TCurve=MyPvsT Daily=PVIrrad_diaria TDaily=MyTemp

New "PVsystem.GD.BT_1049993_M1" phases=3 bus1=1001049993.1.2.3.4 conn=Delta kv=0.22 pf=0.92 pmpp=0.9609637985462182 kva=1 irradiance=0.98
~ temperature=25 %cutin=0.1 %cutout=0.1 effcurve=Myeff P-TCurve=MyPvsT Daily=PVIrrad_diaria TDaily=MyTemp

New "PVsystem.GD.BT_1049993_M2" phases=3 bus1=1001049993.1.2.3.4 conn=Delta kv=0.22 pf=0.92 pmpp=0.9609637985462182 kva=1 irradiance=0.98
~ temperature=25 %cutin=0.1 %cutout=0.1 effcurve=Myeff P-TCurve=MyPvsT Daily=PVIrrad_diaria TDaily=MyTemp

New "PVsystem.GD.BT_1050070_M1" phases=3 bus1=1001050070.1.2.3.4 conn=Delta kv=0.22 pf=0.92 pmpp=1.1786009075596855 kva=2 irradiance=0.98
~ temperature=25 %cutin=0.1 %cutout=0.1 effcurve=Myeff P-TCurve=MyPvsT Daily=PVIrrad_diaria TDaily=MyTemp

New "PVsystem.GD.BT_1050070_M2" phases=3 bus1=1001050070.1.2.3.4 conn=Delta kv=0.22 pf=0.92 pmpp=1.1786009075596855 kva=2 irradiance=0.98
~ temperature=25 %cutin=0.1 %cutout=0.1 effcurve=Myeff P-TCurve=MyPvsT Daily=PVIrrad_diaria TDaily=MyTemp

New "PVsystem.GD.BT_1049958_M1" phases=1 bus1=1001049958.2.3.4 conn=Delta kv=0.22 pf=0.92 pmpp=1.8791066983405897 kva=2 irradiance=0.98
~ temperature=25 %cutin=0.1 %cutout=0.1 effcurve=Myeff P-TCurve=MyPvsT Daily=PVIrrad_diaria TDaily=MyTemp

New "PVsystem.GD.BT_1049958_M2" phases=1 bus1=1001049958.2.3.4 conn=Delta kv=0.22 pf=0.92 pmpp=1.8791066983405897 kva=2 irradiance=0.98
~ temperature=25 %cutin=0.1 %cutout=0.1 effcurve=Myeff P-TCurve=MyPvsT Daily=PVIrrad_diaria TDaily=MyTemp

New "PVsystem.GD.BT_1050084_M1" phases=3 bus1=1001050084.1.2.3.4 conn=Delta kv=0.22 pf=0.92 pmpp=1.023032849425759 kva=2 irradiance=0.98
~ temperature=25 %cutin=0.1 %cutout=0.1 effcurve=Myeff P-TCurve=MyPvsT Daily=PVIrrad_diaria TDaily=MyTemp

New "PVsystem.GD.BT_1050084_M2" phases=3 bus1=1001050084.1.2.3.4 conn=Delta kv=0.22 pf=0.92 pmpp=1.023032849425759 kva=2 irradiance=0.98
~ temperature=25 %cutin=0.1 %cutout=0.1 effcurve=Myeff P-TCurve=MyPvsT Daily=PVIrrad_diaria TDaily=MyTemp

New "PVsystem.GD.BT_1049909_M1" phases=3 bus1=1001049909.1.2.3.4 conn=Delta kv=0.22 pf=0.92 pmpp=1.0745603103792736 kva=2 irradiance=0.98
~ temperature=25 %cutin=0.1 %cutout=0.1 effcurve=Myeff P-TCurve=MyPvsT Daily=PVIrrad_diaria TDaily=MyTemp

New "PVsystem.GD.BT_1049909_M2" phases=3 bus1=1001049909.1.2.3.4 conn=Delta kv=0.22 pf=0.92 pmpp=1.0745603103792736 kva=2 irradiance=0.98
~ temperature=25 %cutin=0.1 %cutout=0.1 effcurve=Myeff P-TCurve=MyPvsT Daily=PVIrrad_diaria TDaily=MyTemp

New "PVsystem.GD.BT_1050049_M1" phases=3 bus1=1001050049.1.2.3.4 conn=Delta kv=0.22 pf=0.92 pmpp=1.0968834216771177 kva=2 irradiance=0.98
~ temperature=25 %cutin=0.1 %cutout=0.1 effcurve=Myeff P-TCurve=MyPvsT Daily=PVIrrad_diaria TDaily=MyTemp

New "PVsystem.GD.BT_1050049_M2" phases=3 bus1=1001050049.1.2.3.4 conn=Delta kv=0.22 pf=0.92 pmpp=1.0968834216771177 kva=2 irradiance=0.98
~ temperature=25 %cutin=0.1 %cutout=0.1 effcurve=Myeff P-TCurve=MyPvsT Daily=PVIrrad_diaria TDaily=MyTemp

New "PVsystem.GD.BT_4301661_M1" phases=3 bus1=1004301661.1.2.3.4 conn=Delta kv=0.22 pf=0.92 pmpp=2.9159845784343164 kva=3 irradiance=0.98
~ temperature=25 %cutin=0.1 %cutout=0.1 effcurve=Myeff P-TCurve=MyPvsT Daily=PVIrrad_diaria TDaily=MyTemp

New "PVsystem.GD.BT_4301661_M2" phases=3 bus1=1004301661.1.2.3.4 conn=Delta kv=0.22 pf=0.92 pmpp=2.9159845784343164 kva=3 irradiance=0.98
~ temperature=25 %cutin=0.1 %cutout=0.1 effcurve=Myeff P-TCurve=MyPvsT Daily=PVIrrad_diaria TDaily=MyTemp

New "PVsystem.GD.BT_1050007_M1" phases=3 bus1=1001050007.1.2.3.4 conn=Delta kv=0.22 pf=0.92 pmpp=1.6398596264738234 kva=2 irradiance=0.98
~ temperature=25 %cutin=0.1 %cutout=0.1 effcurve=Myeff P-TCurve=MyPvsT Daily=PVIrrad_diaria TDaily=MyTemp

New "PVsystem.GD.BT_1050007_M2" phases=3 bus1=1001050007.1.2.3.4 conn=Delta kv=0.22 pf=0.92 pmpp=1.6398596264738234 kva=2 irradiance=0.98
~ temperature=25 %cutin=0.1 %cutout=0.1 effcurve=Myeff P-TCurve=MyPvsT Daily=PVIrrad_diaria TDaily=MyTemp

New "PVsystem.GD.BT_4496954_M1" phases=3 bus1=1004496954.1.2.3.4 conn=Delta kv=0.22 pf=0.92 pmpp=2.060002032981632 kva=3 irradiance=0.98
~ temperature=25 %cutin=0.1 %cutout=0.1 effcurve=Myeff P-TCurve=MyPvsT Daily=PVIrrad_diaria TDaily=MyTemp

New "PVsystem.GD.BT_4496954_M2" phases=3 bus1=1004496954.1.2.3.4 conn=Delta kv=0.22 pf=0.92 pmpp=2.060002032981632 kva=3 irradiance=0.98
~ temperature=25 %cutin=0.1 %cutout=0.1 effcurve=Myeff P-TCurve=MyPvsT Daily=PVIrrad_diaria TDaily=MyTemp

New "PVsystem.GD.BT_1050021_M1" phases=3 bus1=1001050021.1.2.3.4 conn=Delta kv=0.22 pf=0.92 pmpp=1.6299131328263639 kva=2 irradiance=0.98
~ temperature=25 %cutin=0.1 %cutout=0.1 effcurve=Myeff P-TCurve=MyPvsT Daily=PVIrrad_diaria TDaily=MyTemp

New "PVsystem.GD.BT_1050021_M2" phases=3 bus1=1001050021.1.2.3.4 conn=Delta kv=0.22 pf=0.92 pmpp=1.6299131328263639 kva=2 irradiance=0.98
~ temperature=25 %cutin=0.1 %cutout=0.1 effcurve=Myeff P-TCurve=MyPvsT Daily=PVIrrad_diaria TDaily=MyTemp

New "PVsystem.GD.BT_1049972_M1" phases=3 bus1=1001049972.1.2.3.4 conn=Delta kv=0.22 pf=0.92 pmpp=0.7613470697692941 kva=1 irradiance=0.98
~ temperature=25 %cutin=0.1 %cutout=0.1 effcurve=Myeff P-TCurve=MyPvsT Daily=PVIrrad_diaria TDaily=MyTemp

New "PVsystem.GD.BT_1049972_M2" phases=3 bus1=1001049972.1.2.3.4 conn=Delta kv=0.22 pf=0.92 pmpp=0.7613470697692941 kva=1 irradiance=0.98
~ temperature=25 %cutin=0.1 %cutout=0.1 effcurve=Myeff P-TCurve=MyPvsT Daily=PVIrrad_diaria TDaily=MyTemp

New "PVsystem.GD.BT_1050091_M1" phases=1 bus1=1001050091.3.1.4 conn=Delta kv=0.22 pf=0.92 pmpp=0.4844756566932793 kva=1 irradiance=0.98
~ temperature=25 %cutin=0.1 %cutout=0.1 effcurve=Myeff P-TCurve=MyPvsT Daily=PVIrrad_diaria TDaily=MyTemp

New "PVsystem.GD.BT_1050091_M2" phases=1 bus1=1001050091.3.1.4 conn=Delta kv=0.22 pf=0.92 pmpp=0.4844756566932793 kva=1 irradiance=0.98
~ temperature=25 %cutin=0.1 %cutout=0.1 effcurve=Myeff P-TCurve=MyPvsT Daily=PVIrrad_diaria TDaily=MyTemp

New "PVsystem.GD.BT_1049979_M1" phases=3 bus1=1001049979.1.2.3.4 conn=Delta kv=0.22 pf=0.92 pmpp=2.2589996321959704 kva=3 irradiance=0.98
~ temperature=25 %cutin=0.1 %cutout=0.1 effcurve=Myeff P-TCurve=MyPvsT Daily=PVIrrad_diaria TDaily=MyTemp

New "PVsystem.GD.BT_1049979_M2" phases=3 bus1=1001049979.1.2.3.4 conn=Delta kv=0.22 pf=0.92 pmpp=2.2589996321959704 kva=3 irradiance=0.98
~ temperature=25 %cutin=0.1 %cutout=0.1 effcurve=Myeff P-TCurve=MyPvsT Daily=PVIrrad_diaria TDaily=MyTemp

New "PVsystem.GD.BT_1050035_M1" phases=3 bus1=1001050035.1.2.3.4 conn=Delta kv=0.22 pf=0.92 pmpp=0.1237583834819191 kva=1 irradiance=0.98
~ temperature=25 %cutin=0.1 %cutout=0.1 effcurve=Myeff P-TCurve=MyPvsT Daily=PVIrrad_diaria TDaily=MyTemp

New "PVsystem.GD.BT_1050035_M2" phases=3 bus1=1001050035.1.2.3.4 conn=Delta kv=0.22 pf=0.92 pmpp=0.1237583834819191 kva=1 irradiance=0.98
~ temperature=25 %cutin=0.1 %cutout=0.1 effcurve=Myeff P-TCurve=MyPvsT Daily=PVIrrad_diaria TDaily=MyTemp

New "PVsystem.GD.BT_1050126_M1" phases=1 bus1=1001050126.3.1.4 conn=Delta kv=0.22 pf=0.92 pmpp=0.9026745524658958 kva=1 irradiance=0.98
~ temperature=25 %cutin=0.1 %cutout=0.1 effcurve=Myeff P-TCurve=MyPvsT Daily=PVIrrad_diaria TDaily=MyTemp

New "PVsystem.GD.BT_1050126_M2" phases=1 bus1=1001050126.3.1.4 conn=Delta kv=0.22 pf=0.92 pmpp=0.9026745524658958 kva=1 irradiance=0.98
~ temperature=25 %cutin=0.1 %cutout=0.1 effcurve=Myeff P-TCurve=MyPvsT Daily=PVIrrad_diaria TDaily=MyTemp

New "PVsystem.GD.BT_1050042_M1" phases=3 bus1=1001050042.1.2.3.4 conn=Delta kv=0.22 pf=0.92 pmpp=7.115487504967488 kva=8 irradiance=0.98
~ temperature=25 %cutin=0.1 %cutout=0.1 effcurve=Myeff P-TCurve=MyPvsT Daily=PVIrrad_diaria TDaily=MyTemp

New "PVsystem.GD.BT_1050042_M2" phases=3 bus1=1001050042.1.2.3.4 conn=Delta kv=0.22 pf=0.92 pmpp=7.115487504967488 kva=8 irradiance=0.98
~ temperature=25 %cutin=0.1 %cutout=0.1 effcurve=Myeff P-TCurve=MyPvsT Daily=PVIrrad_diaria TDaily=MyTemp

New "PVsystem.GD.BT_1049986_M1" phases=3 bus1=1001049986.1.2.3.4 conn=Delta kv=0.22 pf=0.92 pmpp=1.1376817344715433 kva=2 irradiance=0.98
~ temperature=25 %cutin=0.1 %cutout=0.1 effcurve=Myeff P-TCurve=MyPvsT Daily=PVIrrad_diaria TDaily=MyTemp

New "PVsystem.GD.BT_1049986_M2" phases=3 bus1=1001049986.1.2.3.4 conn=Delta kv=0.22 pf=0.92 pmpp=1.1376817344715433 kva=2 irradiance=0.98
~ temperature=25 %cutin=0.1 %cutout=0.1 effcurve=Myeff P-TCurve=MyPvsT Daily=PVIrrad_diaria TDaily=MyTemp

New "PVsystem.GD.BT_1049916_M1" phases=3 bus1=1001049916.1.2.3.4 conn=Delta kv=0.22 pf=0.92 pmpp=1.204275160284182 kva=2 irradiance=0.98
~ temperature=25 %cutin=0.1 %cutout=0.1 effcurve=Myeff P-TCurve=MyPvsT Daily=PVIrrad_diaria TDaily=MyTemp

New "PVsystem.GD.BT_1049916_M2" phases=3 bus1=1001049916.1.2.3.4 conn=Delta kv=0.22 pf=0.92 pmpp=1.204275160284182 kva=2 irradiance=0.98
~ temperature=25 %cutin=0.1 %cutout=0.1 effcurve=Myeff P-TCurve=MyPvsT Daily=PVIrrad_diaria TDaily=MyTemp

New "PVsystem.GD.BT_10406755_M1" phases=1 bus1=1010406755.2.3.4 conn=Delta kv=0.22 pf=0.92 pmpp=0.9750551332214643 kva=1 irradiance=0.98
~ temperature=25 %cutin=0.1 %cutout=0.1 effcurve=Myeff P-TCurve=MyPvsT Daily=PVIrrad_diaria TDaily=MyTemp

New "PVsystem.GD.BT_10406755_M2" phases=1 bus1=1010406755.2.3.4 conn=Delta kv=0.22 pf=0.92 pmpp=0.9750551332214643 kva=1 irradiance=0.98
~ temperature=25 %cutin=0.1 %cutout=0.1 effcurve=Myeff P-TCurve=MyPvsT Daily=PVIrrad_diaria TDaily=MyTemp

New "PVsystem.GD.BT_1050063_M1" phases=3 bus1=1001050063.1.2.3.4 conn=Delta kv=0.22 pf=0.92 pmpp=2.2114099964454716 kva=3 irradiance=0.98
~ temperature=25 %cutin=0.1 %cutout=0.1 effcurve=Myeff P-TCurve=MyPvsT Daily=PVIrrad_diaria TDaily=MyTemp

New "PVsystem.GD.BT_1050063_M2" phases=3 bus1=1001050063.1.2.3.4 conn=Delta kv=0.22 pf=0.92 pmpp=2.2114099964454716 kva=3 irradiance=0.98
~ temperature=25 %cutin=0.1 %cutout=0.1 effcurve=Myeff P-TCurve=MyPvsT Daily=PVIrrad_diaria TDaily=MyTemp

New "PVsystem.GD.BT_10214815_M1" phases=1 bus1=1010214815.1.2.4 conn=Delta kv=0.22 pf=0.92 pmpp=1.052352581735759 kva=2 irradiance=0.98
~ temperature=25 %cutin=0.1 %cutout=0.1 effcurve=Myeff P-TCurve=MyPvsT Daily=PVIrrad_diaria TDaily=MyTemp

New "PVsystem.GD.BT_10214815_M2" phases=1 bus1=1010214815.1.2.4 conn=Delta kv=0.22 pf=0.92 pmpp=1.052352581735759 kva=2 irradiance=0.98
~ temperature=25 %cutin=0.1 %cutout=0.1 effcurve=Myeff P-TCurve=MyPvsT Daily=PVIrrad_diaria TDaily=MyTemp

New "PVsystem.GD.BT_1050133_M1" phases=3 bus1=1001050133.1.2.3.4 conn=Delta kv=0.22 pf=0.92 pmpp=1.5669351249942904 kva=2 irradiance=0.98
~ temperature=25 %cutin=0.1 %cutout=0.1 effcurve=Myeff P-TCurve=MyPvsT Daily=PVIrrad_diaria TDaily=MyTemp

New "PVsystem.GD.BT_1050133_M2" phases=3 bus1=1001050133.1.2.3.4 conn=Delta kv=0.22 pf=0.92 pmpp=1.5669351249942904 kva=2 irradiance=0.98
~ temperature=25 %cutin=0.1 %cutout=0.1 effcurve=Myeff P-TCurve=MyPvsT Daily=PVIrrad_diaria TDaily=MyTemp

New "PVsystem.GD.BT_1050077_M1" phases=3 bus1=1001050077.1.2.3.4 conn=Delta kv=0.22 pf=0.92 pmpp=2.592917633217827 kva=3 irradiance=0.98
~ temperature=25 %cutin=0.1 %cutout=0.1 effcurve=Myeff P-TCurve=MyPvsT Daily=PVIrrad_diaria TDaily=MyTemp

New "PVsystem.GD.BT_1050077_M2" phases=3 bus1=1001050077.1.2.3.4 conn=Delta kv=0.22 pf=0.92 pmpp=2.592917633217827 kva=3 irradiance=0.98
~ temperature=25 %cutin=0.1 %cutout=0.1 effcurve=Myeff P-TCurve=MyPvsT Daily=PVIrrad_diaria TDaily=MyTemp

New "PVsystem.GD.BT_1049951_M1" phases=3 bus1=1001049951.1.2.3.4 conn=Delta kv=0.22 pf=0.92 pmpp=0.6196608393539872 kva=1 irradiance=0.98
~ temperature=25 %cutin=0.1 %cutout=0.1 effcurve=Myeff P-TCurve=MyPvsT Daily=PVIrrad_diaria TDaily=MyTemp

New "PVsystem.GD.BT_1049951_M2" phases=3 bus1=1001049951.1.2.3.4 conn=Delta kv=0.22 pf=0.92 pmpp=0.6196608393539872 kva=1 irradiance=0.98
~ temperature=25 %cutin=0.1 %cutout=0.1 effcurve=Myeff P-TCurve=MyPvsT Daily=PVIrrad_diaria TDaily=MyTemp

New "PVsystem.GD.BT_1049965_M1" phases=3 bus1=1001049965.1.2.3.4 conn=Delta kv=0.22 pf=0.92 pmpp=1.9503557001067227 kva=2 irradiance=0.98
~ temperature=25 %cutin=0.1 %cutout=0.1 effcurve=Myeff P-TCurve=MyPvsT Daily=PVIrrad_diaria TDaily=MyTemp

New "PVsystem.GD.BT_1049965_M2" phases=3 bus1=1001049965.1.2.3.4 conn=Delta kv=0.22 pf=0.92 pmpp=1.9503557001067227 kva=2 irradiance=0.98
~ temperature=25 %cutin=0.1 %cutout=0.1 effcurve=Myeff P-TCurve=MyPvsT Daily=PVIrrad_diaria TDaily=MyTemp

New "PVsystem.GD.BT_1050028_M1" phases=3 bus1=1001050028.1.2.3.4 conn=Delta kv=0.22 pf=0.92 pmpp=0.8202181550480551 kva=1 irradiance=0.98
~ temperature=25 %cutin=0.1 %cutout=0.1 effcurve=Myeff P-TCurve=MyPvsT Daily=PVIrrad_diaria TDaily=MyTemp

New "PVsystem.GD.BT_1050028_M2" phases=3 bus1=1001050028.1.2.3.4 conn=Delta kv=0.22 pf=0.92 pmpp=0.8202181550480551 kva=1 irradiance=0.98
~ temperature=25 %cutin=0.1 %cutout=0.1 effcurve=Myeff P-TCurve=MyPvsT Daily=PVIrrad_diaria TDaily=MyTemp

New "PVsystem.GD.BT_11266978_M1" phases=1 bus1=1011266978.1.2.4 conn=Delta kv=0.22 pf=0.92 pmpp=0.09086141597883601 kva=1 irradiance=0.98
~ temperature=25 %cutin=0.1 %cutout=0.1 effcurve=Myeff P-TCurve=MyPvsT Daily=PVIrrad_diaria TDaily=MyTemp

New "PVsystem.GD.BT_11266978_M2" phases=1 bus1=1011266978.1.2.4 conn=Delta kv=0.22 pf=0.92 pmpp=0.09086141597883601 kva=1 irradiance=0.98
~ temperature=25 %cutin=0.1 %cutout=0.1 effcurve=Myeff P-TCurve=MyPvsT Daily=PVIrrad_diaria TDaily=MyTemp

New "PVsystem.GD.BT_1050105_M1" phases=3 bus1=1001050105.1.2.3.4 conn=Delta kv=0.22 pf=0.92 pmpp=1.0115823025472004 kva=2 irradiance=0.98
~ temperature=25 %cutin=0.1 %cutout=0.1 effcurve=Myeff P-TCurve=MyPvsT Daily=PVIrrad_diaria TDaily=MyTemp

New "PVsystem.GD.BT_1050105_M2" phases=3 bus1=1001050105.1.2.3.4 conn=Delta kv=0.22 pf=0.92 pmpp=1.0115823025472004 kva=2 irradiance=0.98
~ temperature=25 %cutin=0.1 %cutout=0.1 effcurve=Myeff P-TCurve=MyPvsT Daily=PVIrrad_diaria TDaily=MyTemp

New "PVsystem.GD.BT_4127207_M1" phases=3 bus1=1004127207.1.2.3.4 conn=Delta kv=0.22 pf=0.92 pmpp=2.8415964992969505 kva=3 irradiance=0.98
~ temperature=25 %cutin=0.1 %cutout=0.1 effcurve=Myeff P-TCurve=MyPvsT Daily=PVIrrad_diaria TDaily=MyTemp

New "PVsystem.GD.BT_4127207_M2" phases=3 bus1=1004127207.1.2.3.4 conn=Delta kv=0.22 pf=0.92 pmpp=2.8415964992969505 kva=3 irradiance=0.98
~ temperature=25 %cutin=0.1 %cutout=0.1 effcurve=Myeff P-TCurve=MyPvsT Daily=PVIrrad_diaria TDaily=MyTemp

New "PVsystem.GD.BT_1049930_M1" phases=1 bus1=1001049930.1.2.4 conn=Delta kv=0.22 pf=0.92 pmpp=3.746706999812175 kva=4 irradiance=0.98
~ temperature=25 %cutin=0.1 %cutout=0.1 effcurve=Myeff P-TCurve=MyPvsT Daily=PVIrrad_diaria TDaily=MyTemp

New "PVsystem.GD.BT_1049930_M2" phases=1 bus1=1001049930.1.2.4 conn=Delta kv=0.22 pf=0.92 pmpp=3.746706999812175 kva=4 irradiance=0.98
~ temperature=25 %cutin=0.1 %cutout=0.1 effcurve=Myeff P-TCurve=MyPvsT Daily=PVIrrad_diaria TDaily=MyTemp

New "PVsystem.GD.BT_1050112_M1" phases=3 bus1=1001050112.1.2.3.4 conn=Delta kv=0.22 pf=0.92 pmpp=5.438730517363207 kva=6 irradiance=0.98
~ temperature=25 %cutin=0.1 %cutout=0.1 effcurve=Myeff P-TCurve=MyPvsT Daily=PVIrrad_diaria TDaily=MyTemp

New "PVsystem.GD.BT_1050112_M2" phases=3 bus1=1001050112.1.2.3.4 conn=Delta kv=0.22 pf=0.92 pmpp=5.438730517363207 kva=6 irradiance=0.98
~ temperature=25 %cutin=0.1 %cutout=0.1 effcurve=Myeff P-TCurve=MyPvsT Daily=PVIrrad_diaria TDaily=MyTemp

New "PVsystem.GD.BT_1050098_M1" phases=3 bus1=1001050098.1.2.3.4 conn=Delta kv=0.22 pf=0.92 pmpp=1.1080443279075458 kva=2 irradiance=0.98
~ temperature=25 %cutin=0.1 %cutout=0.1 effcurve=Myeff P-TCurve=MyPvsT Daily=PVIrrad_diaria TDaily=MyTemp

New "PVsystem.GD.BT_1050098_M2" phases=3 bus1=1001050098.1.2.3.4 conn=Delta kv=0.22 pf=0.92 pmpp=1.1080443279075458 kva=2 irradiance=0.98
~ temperature=25 %cutin=0.1 %cutout=0.1 effcurve=Myeff P-TCurve=MyPvsT Daily=PVIrrad_diaria TDaily=MyTemp

New "PVsystem.GD.BT_1049902_M1" phases=1 bus1=1001049902.1.2.4 conn=Delta kv=0.22 pf=0.92 pmpp=2.2522924379944187 kva=3 irradiance=0.98
~ temperature=25 %cutin=0.1 %cutout=0.1 effcurve=Myeff P-TCurve=MyPvsT Daily=PVIrrad_diaria TDaily=MyTemp

New "PVsystem.GD.BT_1049902_M2" phases=1 bus1=1001049902.1.2.4 conn=Delta kv=0.22 pf=0.92 pmpp=2.2522924379944187 kva=3 irradiance=0.98
~ temperature=25 %cutin=0.1 %cutout=0.1 effcurve=Myeff P-TCurve=MyPvsT Daily=PVIrrad_diaria TDaily=MyTemp

New "PVsystem.GD.BT_1049923_M1" phases=1 bus1=1001049923.3.1.4 conn=Delta kv=0.22 pf=0.92 pmpp=1.3878891474811081 kva=2 irradiance=0.98
~ temperature=25 %cutin=0.1 %cutout=0.1 effcurve=Myeff P-TCurve=MyPvsT Daily=PVIrrad_diaria TDaily=MyTemp

New "PVsystem.GD.BT_1049923_M2" phases=1 bus1=1001049923.3.1.4 conn=Delta kv=0.22 pf=0.92 pmpp=1.3878891474811081 kva=2 irradiance=0.98
~ temperature=25 %cutin=0.1 %cutout=0.1 effcurve=Myeff P-TCurve=MyPvsT Daily=PVIrrad_diaria TDaily=MyTemp

New "PVsystem.GD.BT_3640476_M1" phases=1 bus1=1003640476.2.3.4 conn=Delta kv=0.22 pf=0.92 pmpp=1.3150566772444492 kva=2 irradiance=0.98
~ temperature=25 %cutin=0.1 %cutout=0.1 effcurve=Myeff P-TCurve=MyPvsT Daily=PVIrrad_diaria TDaily=MyTemp

New "PVsystem.GD.BT_3640476_M2" phases=1 bus1=1003640476.2.3.4 conn=Delta kv=0.22 pf=0.92 pmpp=1.3150566772444492 kva=2 irradiance=0.98
~ temperature=25 %cutin=0.1 %cutout=0.1 effcurve=Myeff P-TCurve=MyPvsT Daily=PVIrrad_diaria TDaily=MyTemp

